# WEL package for  MODFLOW-2005, generated by Flopy.
         1        53 
         1         0 # stress period 1
         1         1         5             1.0
