# DIS package for  MODFLOW-2005, generated by Flopy.
         1         1         9         2         4         2
  0
CONSTANT    1.000000E+00                           #delr                          
CONSTANT    1.000000E+00                           #delc                          
CONSTANT   -1.000000E+02                           #model_top                     
CONSTANT   -1.010000E+02                           #botm layer 1                  
      1.000000             1  1.000000  SS 
    100.000000             1  1.000000  TR 
