# Name file for MODFLOW-2005, generated by Flopy version 3.2.12.
#xll:0; yll:0; rotation:0; proj4_str:None; units:meters; lenuni:2;  ;start_datetime:1-1-1970
LIST               2  model.list
DIS               11  model.dis 
BAS6              13  model.bas 
LPF               15  model.lpf 
WEL               20  model.wel 
PCG               27  model.pcg 
OC                14  model.oc 
DATA(BINARY)      53  model.cbc REPLACE
DATA(BINARY)      51  model.hds REPLACE
