# LPF package for  MODFLOW-2005, generated by Flopy.
        53    -1E+30         0  
         0
         0
   1.000000E+00
         0
         0
CONSTANT    2.000000E-01                           #hk layer 1                    
CONSTANT    2.000000E-01                           #vka1                          
CONSTANT   -9.990000E+02                           #ss layer 1                    
